30
Coordinates from ORCA-job HAT-CN6
  N   1.36288951621836      0.13264821395979     -0.04873394545345
  C   2.50779116388439      0.08053974923710     -0.05521163090431
  C   3.94802574745701      0.03559660881170     -0.06407363793111
  N   4.52262785630576     -1.14530464873575     -0.05915015531969
  C   5.85136417207756     -1.17611123901335     -0.06627367266347
  C   6.52453095089369     -2.47545323444070     -0.06845357797579
  N   5.78416205794206     -3.57936662994586     -0.05494405328444
  C   6.41829029293133     -4.72965973517423     -0.06295392926706
  C   5.62340706487041     -5.93154542444980     -0.04512557305024
  N   4.99928651349998     -6.89271660023526     -0.03105687997237
  C   7.82495175508236     -4.79374364251533     -0.08852801867133
  C   8.50606157443335     -6.06344158833925     -0.10707723488849
  N   9.03485557464540     -7.08019956960606     -0.12174302171737
  N   8.56062962649377     -3.70569262589304     -0.09829404952128
  C   7.92314934761774     -2.53924072616122     -0.08640486773249
  C   8.71146034832381     -1.30634053412230     -0.08999718427005
  N   10.03759737959318     -1.39556944111459     -0.10059828208956
  C   10.71747814951690     -0.27210016260433     -0.09765431308463
  C   12.15571702748877     -0.35747092989111     -0.11197218740338
  N   13.30072878407579     -0.40611328514681     -0.12316977367691
  C   10.06986174195626      0.97908418791496     -0.08157090435204
  C   10.83334387461080      2.20107326661940     -0.07336255070359
  N   11.46686536642679      3.15618333969573     -0.06708320808147
  N   8.76004726264928      1.07213262140284     -0.07441351277814
  C   8.06772547872160     -0.06284389950354     -0.07986896386813
  C   6.60592835592340      0.00367992400406     -0.07489886439438
  N   6.01988955628060      1.19692829941047     -0.08106892247957
  C   4.70693324180828      1.22231893992823     -0.07714116530249
  C   4.05866085652647      2.50909352746976     -0.08830801676532
  N   3.52029936174480      3.52088523843850     -0.09715790239743
