4
Coordinates from ORCA-job ReO3
  O   -1.04748000000000      1.69384000000000      0.04731000000000
  O   1.70407000000000      2.00481000000000      0.04058000000000
  O   0.59766000000000     -0.53239000000000      0.11930000000000
  Re  0.41871000000000      1.03762000000000     -0.49593000000000
