20
Coordinates from ORCA-job F4-TCNQ
  C   -12.76156304365148      3.77431652409823     -0.62127605268592
  C   -12.31003925057980      2.52058709435180     -0.24406107443341
  N   -13.12667199344311      4.81915225191393     -0.91973659290082
  N   -11.92632149165177      1.48395795158450      0.06041415501638
  H   -9.37992306015864      4.25413679623104     -0.47543631861346
  H   -8.67663836026235      4.50075115445696     -0.49008135932495
  H   -9.53900201305219      6.91888282208460     -0.64323129919200
  H   -7.63360766315087      2.16263132196101     -0.34088893683332
  F   -10.28966165373580      7.45405074257696     -0.66438869997818
  F   -7.27985953289282      1.31314602689105     -0.28880617306364
  H   -5.96659905428600      8.19228152422656     -0.70655234578946
  H   -4.38412437050399      3.38127893003250     -0.40266850520791
  H   -5.10998416250507      5.85872625134805     -0.56029213277326
  F   -5.98398454631699      9.11285292145095     -0.75604436612303
  F   -3.62449145614141      2.85829207801952     -0.40362377568685
  H   -4.39956055686909      6.08537863350817     -0.58471149293712
  C   -1.41763923324266      7.73341973984194     -0.86292370323199
  C   -1.00872071863530      6.44475373745016     -0.56921784806025
  N   -1.77069699023073      8.79643267762940     -1.10614443421478
  N   -0.67400084868954      5.37623082034240     -0.32432904396601
