38
Coordinates from ORCA-job DMBI-POH
  C   -8.54172575053709      2.31125117228013      0.18807682594283
  C   -8.45893540055331      1.07390837622405     -0.46992696763646
  C   -7.41618543646625      2.97326907688156      0.63338330757504
  H   -9.51445570383817      2.76104715738345      0.34011563759656
  C   -7.24621380787088      0.46280228251552     -0.71774399997508
  H   -9.37039051059530      0.59327458726190     -0.80247144078762
  C   -6.19847911809359      2.34828437660296      0.39729867867894
  H   -7.46814384545272      3.94634193822185      1.10134129212829
  C   -6.11381022973556      1.13373617850886     -0.27175112696987
  H   -7.18330185540045     -0.48504677622051     -1.23584666086497
  N   -4.90446319231273      2.72765607170165      0.70495926431051
  N   -4.76539655502860      0.83691169764645     -0.37798902295588
  C   -4.06803187301617      1.82101718326812      0.21078505847507
  C   -4.56486159568238      3.97328688272028      1.38385372022190
  H   -5.13713111393938      4.01936048646099      2.31004783973189
  H   -4.83803151045577      4.79753005931035      0.68197312579947
  H   -3.50362497460535      3.96385397157198      1.61867741950836
  C   -4.22788939612733     -0.30956820413331     -1.08675925350398
  H   -4.69322064774319     -0.36992973575632     -2.06904641130267
  H   -4.42928652143309     -1.22284168250096     -0.52818068226040
  H   -3.15545040834752     -0.18524687010644     -1.20791760966125
  C   -2.60476964281519      1.91130974618666      0.25701324888290
  C   -1.99453763595174      2.97995984752629     -0.41804658010453
  C   -0.61168872907064      3.12308556817288     -0.35724199648264
  C   -1.83510463089070      0.99133967011265      0.95692865328060
  C   -0.45873531502042      1.13196988480388      1.00818052097091
  H   -2.32317889313791      0.17602010744066      1.47856771681882
  C   0.13988109949901      2.20036621983649      0.35365440026830
  H   -0.12788533351752      3.94247137305675     -0.87150750775984
  H   1.21642066500067      2.31837837331859      0.39203300174693
  H   0.14071664247509      0.42090898099076      1.56147187883020
  O   -2.82273826768684      3.78155809976853     -1.09208160309216
  C   -2.42633455792969      5.11306180450777     -1.42417619646970
  H   -1.83327251346325      5.11708854116201     -2.34153930520485
  H   -1.85011368955297      5.55220657935461     -0.60651475599144
  H   -3.37087380868730      5.65281661218036     -1.53403160488105
  O   -5.51791354949112      5.68260938804901     -0.80081184064755
  H   -5.62213239252388      4.88728097368913     -1.32908702421559
