34
Coordinates from ORCA-job BCF
  C   -0.53195508864046      4.47105088019330      0.06172630018200
  C   -1.26583282403495      3.30676934327175     -0.05279082218165
  C   -0.83243442547701      5.36211809469543      1.07688859587080
  C   -2.31901615498812      2.99164118507559      0.79950720086905
  C   -1.86519024109916      5.08558482501318      1.95552614104004
  C   -2.59142012500948      3.92160001607175      1.79732712827919
  C   -2.40771018336469      0.32228103462644      0.32440622931673
  C   -1.19854728143056     -0.01682562586493      0.92260104281760
  C   -0.54043868009069     -1.20236615301490      0.66160960873464
  C   -2.92200500474880     -0.60553212635408     -0.57547679152038
  C   -2.28074151519490     -1.79077672719126     -0.87677742194407
  C   -1.08501952010989     -2.09112719452800     -0.24827284438103
  F   0.45342870301428      4.74177581441584     -0.78558934761365
  F   -0.94422307966397      2.48439691207186     -1.05264934457262
  F   -0.13399927505427      6.47667824925284      1.20671093754403
  F   -2.14636914193843      5.93698722013159      2.93436772791939
  F   -3.57068317152175      3.69499079202108      2.67438441449097
  F   -4.06691628841000     -0.35716444036464     -1.21313965047777
  F   -2.79667466796375     -2.64066554740892     -1.75658223435295
  F   -0.46344292845532     -3.22616189116818     -0.51723648467217
  F   0.60162155271912     -1.49644212610478      1.27109360487108
  F   -0.63941365723710      0.80210791576638      1.81467710378696
  B   -3.14434717515297      1.66746896443475      0.64732156969464
  C   -4.70135449589950      1.69048890500822      0.82088322508435
  C   -5.48488788412831      2.72962313139395      0.32832199435865
  C   -6.85812070823726      2.76524817069092      0.46935330909746
  C   -5.38633287002990      0.67724864897986      1.48477068924250
  C   -7.49519001690571      1.73982637292314      1.14600882662130
  C   -6.75588976070411      0.69011556117711      1.66234690574917
  F   -4.92014719031440      3.73726442268971     -0.33823752329814
  F   -7.56834131401176      3.76825584580355     -0.03240760540141
  F   -4.71947685146954     -0.35050832853960      2.01178711978406
  F   -7.36671389384931     -0.28896977905619      2.31875272509533
  F   -8.80754484059728      1.76305763388720      1.29931766996591
