30
Coordinates from ORCA-job osc4T
  C   -6.28374727888032      3.25872034020458     -0.00051231963516
  C   -5.75870424687721      2.00486104515299     -0.00583807001449
  C   -3.80927542101051      3.27022331469735     -0.00028641358410
  C   -4.34048980149877      2.01026100401139     -0.00563582906886
  H   -3.73757895902720      1.11140283669377     -0.00944376809645
  H   -6.35892567841554      1.10548722375936     -0.00965868595725
  S   -5.06267884840364      4.45099343322449      0.00442536360779
  H   -7.32289436547005      3.54893789201268      0.00057587271558
  C   -2.40888461142018      3.66330914948701      0.00144554617176
  C   -1.87416322542646      4.92036447294676      0.00299998031689
  C   -0.46011041013538      4.92497860686728      0.00392559989622
  C   0.08211573086159      3.67083436668779      0.00338085329818
  H   0.13367007432730      5.82971816753043      0.00493563217772
  H   -2.47357502694731      5.82128065155300      0.00333517409250
  S   -1.16000017561188      2.47653121503911      0.00087830839812
  C   1.48267600010231      3.28706594319369      0.00380878147422
  C   2.02496672207143      2.03295916638507      0.00617241199253
  C   3.43903102322243      2.03765611865165      0.00543783613982
  C   3.97370181735046      3.29471937806182      0.00220287547987
  H   4.03846955445884      1.13680597054770      0.00690659725941
  H   1.43123332634656      1.12818995503024      0.00865777987584
  S   2.72475623823878      4.48140585781057     -0.00006722903988
  C   5.37405161936293      3.68795473614369     -0.00022233140049
  C   5.90508776845368      4.94801302283968     -0.00366781061042
  C   7.32329702635587      4.95358458990943     -0.00509822933369
  C   7.84850611128866      3.69977964699820     -0.00306266836108
  H   7.92339470128598      5.85304390222988     -0.00744687946056
  H   5.30206895753231      5.84681924068992     -0.00446384425541
  S   6.62760718035692      2.50732369691648     -0.00009624523350
  H   8.88769419750837      3.40970505472394     -0.00358828884509
