59
Coordinates from ORCA-job Crys_vi
  N   -7.08975163062734      5.17585671199560     -1.43818650341607
  C   -6.98312539960419      6.13622971528522     -2.51793023215850
  H   -6.08070279662835      6.74777742970774     -2.42564204766146
  H   -7.84514417725848      6.79756336163957     -2.48832151817514
  H   -6.96714161024811      5.64439158719657     -3.49475339733110
  C   -8.22055080114149      5.24565126752079     -0.53501702267797
  H   -7.91139311361283      5.50020416607332      0.48361356047129
  H   -8.76402918611961      4.29747220668468     -0.50320194525084
  H   -8.90513062918452      6.01411374154916     -0.88352944990460
  C   -6.11988444994690      4.24772803157608     -1.24971380987368
  C   -6.17653755174364      3.33420079064171     -0.17190416768149
  C   -5.01184340989375      4.15624928748983     -2.12294258341796
  C   -5.19922693533552      2.38577610640719     -0.00006922099253
  H   -6.98663286548722      3.38120999421703      0.54153044670499
  C   -4.03131378600030      3.21709487449848     -1.91932465009228
  H   -4.92788700333158      4.82031197580389     -2.97108008569766
  C   -4.09287189830585      2.29607817248129     -0.86068892450161
  H   -5.26201774590350      1.72011319627252      0.85242929931189
  H   -3.20610303480658      3.16112257128000     -2.61936909653052
  C   -3.05243877205732      1.30998157843668     -0.66258749924190
  C   -3.37531409926313      0.01399943045148     -0.13884495853875
  C   -1.69505839498044      1.63083694899411     -0.93507706500788
  C   -1.18518018099561      2.92818134228227     -0.69940934928234
  C   -0.76353009762930      0.63827163010899     -1.32274497847244
  C   0.15581412842019      3.18701291383380     -0.71792569145306
  H   -1.86476405184182      3.71605725101171     -0.39941182535860
  C   0.57090323776632      0.88918730768926     -1.38332978778534
  H   -1.12633603942367     -0.34518133120491     -1.59365665019746
  C   1.08691619152756      2.15036766067417     -0.98945104993301
  H   0.50222045436608      4.17164959386888     -0.44033163105708
  H   1.24340899438859      0.09706704294641     -1.67374950739532
  N   2.41092274455646      2.34106838482842     -0.86744548472125
  C   2.93678115069841      3.63187914959140     -0.46642453675965
  H   2.55200721576104      4.42496988740891     -1.10874543092779
  H   4.01915630905224      3.61621789772803     -0.56660748233433
  H   2.68527649834620      3.86599291173428      0.57305856881149
  C   3.30750737136652      1.19336154968266     -0.85539039530557
  H   2.93873834930225      0.43895527721558     -0.15464759483790
  H   4.28914865971181      1.52414892259100     -0.52702876918733
  H   3.40887379671577      0.75322394917734     -1.85071650925807
  C   -2.45767524265277     -0.68381676288862      0.67746064654299
  C   -4.61715845420205     -0.60622511506071     -0.38547682507860
  C   -2.76120040152795     -1.90482321434659      1.21669209662419
  H   -1.49828771318828     -0.24389042905826      0.94020460806126
  C   -4.92296254195632     -1.83882521486898      0.12541796108255
  H   -5.33382954720977     -0.11869632364157     -1.03577028472870
  C   -4.00442841086923     -2.52771190433564      0.95908050039473
  H   -2.02885265599781     -2.37211304769913      1.85951911807346
  H   -5.87390434429175     -2.28657376067399     -0.12433556929224
  N   -4.30816855627325     -3.73195117467304      1.49011720808512
  C   -5.60047834616882     -4.34059309621277      1.24414972094828
  H   -6.41583249108847     -3.70154410283323      1.59364403639089
  H   -5.65464847804804     -5.28295276234118      1.78151757934950
  H   -5.75319277240706     -4.54557001932958      0.18065094830982
  C   -3.34473960503791     -4.42624356524106      2.32470110363496
  H   -2.42193091474728     -4.63675619886375      1.77861310810379
  H   -3.77385651483970     -5.37055710919019      2.64719457321871
  H   -3.09252043961809     -3.84301443135973      3.21418938998120
  Cl  0.93261198951660     -0.18459625475332      1.87798905741696
