18
Coordinates from ORCA-job CN6-CP
  N   -0.74262694866963     -0.88783220308620     -0.15424971514894
  C   0.40465137765254     -0.89696761467387     -0.16291331285481
  C   1.83308965202483     -0.90801513329855     -0.17625964684258
  C   2.51733797275395     -1.06214127854856      1.06832915778281
  N   3.06954613980599     -1.18632257779057      2.06640418344925
  C   2.51116704672486     -0.77967539215867     -1.32290397997894
  C   2.52106886696427     -0.61665589418626     -2.73326138787300
  C   1.85914257554638     -0.47892773333340     -3.88823783035641
  C   2.56082585965702     -0.34088885835939     -5.12495236751698
  N   3.12752646087659     -0.22961843019443     -6.11642073448023
  C   0.43085813786876     -0.46636395331826     -3.91878693912265
  N   -0.71623086378986     -0.45677803261187     -3.94131741825813
  C   3.74504612833070     -0.70826621525149     -2.02056974047649
  C   5.08329366359547     -0.71820812450456     -2.01148857984040
  C   5.82705845531493     -0.58233846817223     -3.22361700025917
  N   6.42501488511561     -0.47300241535751     -4.19675111919105
  C   5.80832371148604     -0.86605169295323     -0.78941984706763
  N   6.39097687874153     -0.98526598220095      0.19182627803536
