30
Coordinates from ORCA-job TMCN3-CP
  O   1.50207095886193      0.40124338082149      0.70569265347248
  C   2.34581761826426     -0.10082027925633      0.01259433893496
  C   2.60441898228460     -1.57100994318108     -0.06617542755847
  C   3.15092157577759      0.79774681602801     -0.91883626380870
  C   2.35942139753487      1.67656320197522     -1.71516153947702
  N   1.66415504728811      2.34849610524791     -2.33482377885037
  C   4.48551089946328      0.78382352513124     -0.94738038178980
  C   5.68538740085879      0.20203142160877     -0.42943445528079
  C   6.30429751131806     -0.59316698573782      0.44626930322363
  C   7.71623917482438     -0.78981595333254      0.39232409504261
  N   8.84990416390078     -0.97299387793329      0.39567718238524
  C   5.57502169775059     -1.37719558129689      1.52539199501640
  C   4.65754278162186     -0.60802672395269      2.42194885947539
  O   5.81499375083304     -2.54858326373421      1.64969018143483
  C   5.76266746776140      1.16099924918290     -1.48254100245735
  C   6.57318806232923      1.84504520466883     -2.29830066060118
  C   7.97924318169865      1.58155320078500     -2.23727470651232
  N   9.10765987023782      1.37528120972681     -2.19505699812657
  C   6.16234208034239      2.89396221547403     -3.30057728847019
  C   4.71540584254643      3.23328661645596     -3.41586968705301
  O   7.02698759327539      3.40993743116473     -3.96338623925103
  H   2.00417684646269     -1.94717877082102     -0.90050473351801
  H   2.27759057559101     -2.06183455769371      0.84803994393527
  H   3.64093630013315     -1.81281407390343     -0.29611787997476
  H   4.17585180792142      0.23084805797990      1.92229087689101
  H   5.27890460924911     -0.18471996384343      3.21693314258946
  H   3.92284715609251     -1.27355046963859      2.87025013936472
  H   4.14786895702545      2.35061230763904     -3.71427355978059
  H   4.58589595263790      4.01587605184386     -4.15900549075092
  H   4.33024073611315      3.57416444859135     -2.45352261850490
