50
Coordinates from ORCA-job DPDHP
  C   2.71732855762203      7.49110713794239      1.62255339001173
  O   3.00260425808255      6.16759684670154      2.03027905074555
  H   2.74189104722012      8.09841992452643      2.52451935924750
  H   1.72579985201437      7.56122796582312      1.16658245682061
  H   3.46686348682941      7.86100935013356      0.91708718980741
  C   3.01941087971529      5.19872669499826      1.07976870151880
  C   3.28870771821425      3.90449533024656      1.52859230867277
  C   2.79184845034338      5.41975189835072     -0.27109304264776
  C   2.83580176454072      4.34539851744733     -1.15676009814315
  H   2.58282647288521      6.41092860346845     -0.64940947471913
  C   3.32514291945905      2.85565354855459      0.63461876905011
  H   3.46652275848070      3.74558562064978      2.58549575650951
  C   3.09944756392683      3.05605522799396     -0.72806393251796
  H   2.65607432474955      4.53073609797891     -2.21098535510175
  H   3.53593106829533      1.85593820130242      0.99973520789190
  C   3.11511419412836      1.88525049715931     -1.70298721496271
  C   4.37340051456936      1.06411538908280     -1.60804881894645
  C   1.93131614429701      0.97513629249754     -1.50023730135335
  H   3.05368374294265      2.31944506687615     -2.70616043473311
  C   4.41590681800929     -0.12678453735199     -1.00344694844814
  H   5.27761377065949      1.45217568213769     -2.06105361713017
  C   2.02696929105980     -0.21194001596090     -0.89482655041119
  H   0.96553102303068      1.29809154287493     -1.86947204664628
  N   3.26193830055603     -0.74705809911476     -0.51308979335856
  C   3.34342186481999     -1.53778676991851      0.71346932757670
  H   3.33371238487466     -2.61330446587562      0.52269900195709
  H   2.50255957154086     -1.29809495948380      1.36338306091636
  H   4.26042322196008     -1.29513965512943      1.24827103171960
  C   5.67298561946249     -0.91107280530086     -0.90934537301090
  C   6.85482154045090     -0.31789387972739     -0.47562113969126
  C   8.03352332440983     -1.04846624902319     -0.42675694114227
  H   6.84365105895469      0.71998646893542     -0.16393487933932
  C   5.69128113150751     -2.25440084380153     -1.28197542403294
  C   6.86710810843465     -2.98383679643611     -1.23383580322469
  H   4.77528741722540     -2.72164272818609     -1.62581795852785
  C   8.04337108840570     -2.38241035705872     -0.80489589181424
  H   8.94570162853350     -0.57480772992006     -0.08337606103622
  H   8.96280768313582     -2.95405475165992     -0.76362975585295
  H   6.86772021131933     -4.02428180561996     -1.53643083443894
  C   0.83880463307226     -1.07680793473723     -0.68466935574131
  C   -0.33715132541400     -0.55397434759860     -0.15447413472154
  C   0.87283486286851     -2.42279023565340     -1.04670818387600
  C   -1.45984534231736     -1.35493739542953     -0.00173475080198
  H   -0.36419932080457      0.48578392489138      0.14966971518839
  C   -1.41845131044358     -2.69108076369788     -0.37031532658821
  H   -2.36776475792362     -0.93419551391155      0.41426641906778
  C   -0.24698412905250     -3.22309376563359     -0.89363632114856
  H   1.78303852999788     -2.83716149826861     -1.46554483025805
  H   -0.20833720093813     -4.26489834483880     -1.18906111987853
  H   -2.29388541571193     -3.31764958123524     -0.24817203245635
