82
Coordinates from ORCA-job MeO-TPD
  C   2.02838601742025     -0.17661041505190      0.73639820445613
  O   3.11440440360771      0.64703685874672      0.36077038168730
  C   3.33956057145123      0.83725742064090     -0.96462015250790
  C   4.41963346490362      1.65449234781142     -1.29277589407724
  C   4.73441820712747      1.89754344731079     -2.61354248743843
  C   3.96835332133843      1.34757900725734     -3.64163377895852
  N   4.28584632523058      1.61643615471940     -4.99621655394032
  C   4.54184070055580      2.95513749297608     -5.38453106444098
  C   5.66655759010216      3.27353897965566     -6.14679050660237
  C   5.91944613046762      4.57667681337139     -6.51932579231978
  C   5.06422104618831      5.60303040999763     -6.11955552490144
  O   5.40124452917252      6.85427668008547     -6.52396302673120
  C   4.55725400830428      7.92360470966309     -6.14375598765634
  C   3.94956929319611      5.29973789959733     -5.34872025981597
  C   3.69184471171330      3.97989936214834     -4.99756584439130
  C   4.35540939921875      0.57765477470205     -5.93659344074434
  C   4.01114516298355      0.79660976043179     -7.27131281413805
  C   4.09876060504551     -0.22544233113112     -8.19943886976336
  C   4.51586046276022     -1.50544260235727     -7.83821182322781
  C   4.61181934463163     -2.59615233060793     -8.83688654561765
  C   3.64545215736186     -2.76067466754572     -9.82804589866864
  C   3.73578186973441     -3.77337709825475    -10.76605515783289
  C   4.80004398289139     -4.67597673869801    -10.73800848350023
  N   4.89764255272410     -5.71065537402246    -11.68096918247972
  C   3.73361145557700     -6.30520704219704    -12.22568861008335
  C   2.68629167407880     -6.71054640280445    -11.39694671012424
  C   1.55198038938205     -7.28963842877266    -11.92547733373610
  C   1.44337493299803     -7.50302368663704    -13.29909059682311
  O   0.29479018026215     -8.08855191599397    -13.72508412007787
  C   0.14181321721845     -8.31671022561485    -15.11226243149577
  C   2.48658006944065     -7.11973122736590    -14.13158240166475
  C   3.61572610162029     -6.51558077556038    -13.59115747865653
  C   6.16830187409895     -6.14262683627262    -12.13781360981983
  C   7.11647450963515     -5.22042767360564    -12.58176945540906
  C   8.35211246291299     -5.63978152729745    -13.02808622697365
  C   8.66423193052127     -6.99818964919845    -13.06301491010653
  O   9.89963991665403     -7.31556956966852    -13.52647624794283
  C   10.26639281418312     -8.68093059447485    -13.56025644556578
  C   7.72215889483674     -7.92624660844207    -12.63717060759758
  C   6.48801681797484     -7.49106906322326    -12.16929070402067
  C   5.76981775455759     -4.52179878780562     -9.74617380780449
  C   5.67521389064584     -3.49754304735704     -8.82169374221454
  C   4.84619871317430     -1.71819412311972     -6.50059449868361
  C   4.77584596321290     -0.70115342655269     -5.56609675996277
  C   2.88609116727189      0.54778029273811     -3.30698202879259
  C   2.57416541784326      0.27774195097272     -1.98040326142989
  H   2.02703900010496     -0.19928913983937      1.82383711161388
  H   2.15046210858465     -1.19414945240400      0.35370650143418
  H   1.07773051124919      0.23217847294900      0.38169652135813
  H   5.01198353783906      2.08339942499913     -0.49380225005373
  H   5.58297906523335      2.52524128220347     -2.85824302663409
  H   6.34482607962241      2.48579193532701     -6.45192767094417
  H   6.79120826351931      4.82369253844047     -7.11277764287923
  H   5.00410564672949      8.82392159445006     -6.55847652425823
  H   4.49947402075860      8.01694192117861     -5.05530261339575
  H   3.54995357354186      7.79877517271168     -6.55131129651815
  H   3.26733729288359      6.07252331321512     -5.02287150470671
  H   2.81527418513485      3.74902839038298     -4.40397169172146
  H   3.68182702830757      1.77927875827092     -7.58550233610811
  H   3.84371795023345     -0.01634640716254     -9.23228020489288
  H   2.79675642018557     -2.08655752767491     -9.86616591807828
  H   2.96990858574829     -3.87134857558910    -11.52569940755286
  H   2.76576204182072     -6.56286306652492    -10.32629265463513
  H   0.73802994637441     -7.60002248260515    -11.28175866269909
  H   -0.83220976059305     -8.78380870499034    -15.23674415734699
  H   0.91645976917607     -8.98912750146014    -15.49224176399598
  H   0.16800958995247     -7.37909461643205    -15.67472936414863
  H   2.43380222368432     -7.27162512218276    -15.20089773195093
  H   4.42085125806223     -6.21069326339624    -14.24903553145395
  H   6.87740462394994     -4.16352183281361    -12.57020657174053
  H   9.08945368598873     -4.92446467722046    -13.37132835530535
  H   11.28106679056316     -8.71171624900566    -13.94941854425512
  H   9.60824595028826     -9.25433699715925    -14.21987520458888
  H   10.24911528251734     -9.12140527550455    -12.55933351926841
  H   7.93602679228616     -8.98608541354743    -12.65079907322631
  H   5.76055490019219     -8.21817921429492    -11.82835953604731
  H   6.60793350239875     -5.20674317980820     -9.70496845740219
  H   6.45375739035290     -3.39425438443228     -8.07397620788225
  H   5.16328687544564     -2.70360409633788     -6.17785850463521
  H   5.04525861981450     -0.89992577658961     -4.53631316398130
  H   2.27688885314942      0.11947739733449     -4.09400330950397
  H   1.72546238866829     -0.35427943768026     -1.75841523999789
