27
Coordinates from ORCA-job DBU
  N   4.40961979626140      5.42191911917960      0.14820978011721
  C   3.05515112863114      5.27056900096612      0.24370454727234
  N   2.42992853128617      4.14968127544537      0.29854538688981
  C   5.30033320976789      4.27703726974555      0.28510011465458
  C   4.57607281302486      3.11095452756705      0.92674093124753
  C   3.22816139366779      2.93743017312341      0.24476300089619
  H   3.38208642495644      2.64249898970105     -0.80196119346525
  H   2.66186716565471      2.13022391702298      0.71435180029646
  H   6.15555762835655      4.57723471081714      0.89684011133802
  H   5.69031023373527      3.98772090727849     -0.69831634467957
  H   5.18389184646744      2.20777769143138      0.84858206469920
  H   4.41608298565757      3.31496810053577      1.98977988136106
  C   5.04824231004683      6.72115836969902      0.00709222539167
  C   5.03685374143587      7.57140239259077      1.27618434336790
  H   4.59330874484298      7.27568901833283     -0.81885167872063
  H   6.07877686528533      6.52508296534868     -0.29212972584329
  C   3.70584415399141      8.27179855916764      1.52758270397334
  H   5.82274428797273      8.32813554260327      1.19425112430858
  H   5.29988480416083      6.93305805795191      2.12646786783035
  C   2.49143335238415      7.35046575890016      1.60004184007975
  H   3.54075075664406      9.00049608315425      0.72457086441083
  H   3.77273632234073      8.84799534479219      2.45463161356636
  C   2.22936123704606      6.52980131348616      0.33009316714518
  H   1.60887760460914      7.96312438380733      1.79916349505977
  H   2.58744850469288      6.66524526266298      2.44955188658938
  H   2.38772875298712      7.15266217915885     -0.55635965214962
  H   1.19278540409261      6.19960908552995      0.30946984436282
