23
Coordinates from ORCA-job TBD
  C   4.06062675949934      2.97373999440410      0.32649199535152
  C   4.65918911652169      1.71750080569447     -0.27480317509112
  C   2.64912591556085      3.14467367407253     -0.19714361681225
  H   4.68159504126846      3.83166609507654      0.06529974635443
  H   4.02987383869755      2.89456328741289      1.41591581337961
  N   1.90066210436904      1.96089393049410      0.16584341203388
  H   2.66862630885066      3.30969164520412     -1.28395812481312
  H   2.16543868697920      4.00838726526632      0.25973269717958
  C   2.39324620908720      0.69361909530958     -0.07662124041096
  H   0.90067531712022      1.99251746489996      0.05578565492010
  N   3.75078437001646      0.58275136972659     -0.21451978105448
  H   5.57636493650020      1.44410577931645      0.25486937552700
  H   4.93794733694906      1.90410875169462     -1.32108728646098
  N   1.54797344986627     -0.27789158187440     -0.10049511587513
  C   4.34702943488997     -0.69441502523221     -0.57941880861229
  C   3.31024503800654     -1.64467387879560     -1.14478004956575
  H   4.83379903280500     -1.13818858247121      0.29738875564708
  H   5.13040055194727     -0.50187519048720     -1.31878728425344
  C   2.08000654079909     -1.61645270503779     -0.25129164314914
  H   3.73148643306131     -2.64926507657094     -1.21548191873064
  H   3.02831941173476     -1.32866530313665     -2.15352124899177
  H   1.29657845087728     -2.25601134596227     -0.66445135591838
  H   2.33736571459252     -2.03923046900401      0.73110319934625
