32
Coordinates from ORCA-job TAM
  C   4.04787641602213      2.67685850355396      0.29373265900480
  C   3.32949068737176      4.00444254699245      0.11435886992838
  C   3.11282669143232      1.52098756754822     -0.02702474049580
  H   4.38110381430862      2.58307015065101      1.32981710082019
  H   4.92986570189550      2.64762801476058     -0.35077463481452
  N   2.06764121558350      4.03105794275269      0.84236863395144
  H   3.15449465764607      4.18344959702312     -0.96354682606631
  H   3.94905461659235      4.82696799229876      0.47783316462676
  N   1.89849799285570      1.68726397900494      0.74487704583583
  H   3.57609547881353      0.57135640112897      0.24518988130999
  H   2.91253395699952      1.49191654402739     -1.11484169168021
  C   1.22831931080727      2.92643819028474      0.39375597204811
  C   1.02450981591853      0.52375512972755      0.83794374618815
  C   1.42352829035871      5.32484330121952      0.71286102271661
  C   0.13365615829620      5.32653931145280      1.50542956483216
  H   1.20782585985574      5.56785824454770     -0.34548140454517
  H   2.11749208742796      6.08306986481012      1.08126415997878
  C   -0.75592785012346      4.22530065911345      0.97116599035317
  H   -0.37374790616846      6.28846108000144      1.40736099880899
  H   0.35203749865985      5.16014833056330      2.56315710086073
  C   -0.96451336244070      1.93274878812475      0.36865556949309
  C   -0.20041178218166      0.67674304953517     -0.04634643235055
  N   -0.09028653954059      2.93286613499404      0.99371570210636
  H   -1.06033800594266      4.48557071372407     -0.06024092174610
  H   -1.67447977459988      4.13647657211015      1.55693390022863
  H   -1.74486333884995      1.68454275896646      1.09309739336280
  H   -1.46699321500211      2.36548742448390     -0.51130312439873
  H   1.13002156996009      3.01015410281503     -0.72564755801469
  H   0.70552895469984      0.38567302389618      1.87666882217149
  H   1.59778881441852     -0.36213792286096      0.55976190911857
  H   0.11550434040846      0.75003416925245     -1.09039182381498
  H   -0.84755215548271     -0.19865216650403      0.03035995018200
